


 38 41  0  0  0  0  0  0  0  0999 V2000
   -3.5207   -4.0781    1.9038 N   0  0  0  0  0  0  0  0  0  0  0  0
   -3.0701   -3.9980    0.5521 C   0  0  0  0  0  0  0  0  0  0  0  0
   -3.5642   -3.0226   -0.2658 N   0  0  0  0  0  0  0  0  0  0  0  0
   -3.1218   -2.9555   -1.5447 C   0  0  0  0  0  0  0  0  0  0  0  0
   -2.2034   -3.8348   -2.0411 C   0  0  0  0  0  0  0  0  0  0  0  0
   -2.0007   -3.4903   -3.3716 C   0  0  0  0  0  0  0  0  0  0  0  0
   -2.8511   -2.4094   -3.6102 C   0  0  0  0  0  0  0  0  0  0  0  0
   -3.5187   -2.0729   -2.4811 N   0  0  0  0  0  0  0  0  0  0  0  0
   -1.7063   -4.8437   -1.2156 C   0  0  0  0  0  0  0  0  0  0  0  0
   -0.8770   -5.6920   -1.6371 O   0  0  0  0  0  0  0  0  0  0  0  0
   -2.1498   -4.8988    0.0763 N   0  0  0  0  0  0  0  0  0  0  0  0
   -3.1641   -4.8240    2.5428 H   0  0  0  0  0  0  0  0  0  0  0  0
   -4.2118   -3.3875    2.2712 H   0  0  0  0  0  0  0  0  0  0  0  0
   -1.7845   -5.6454    0.7103 H   0  0  0  0  0  0  0  0  0  0  0  0
   -4.5584   -1.0447   -2.3793 C   0  0  0  0  0  0  0  0  0  0  0  0
   -5.3426   -1.2415   -1.2249 O   0  0  0  0  0  0  0  0  0  0  0  0
   -6.6510   -0.7977   -1.5277 C   0  0  0  0  0  0  0  0  0  0  0  0
   -6.7562   -0.4913   -3.0296 C   0  0  0  0  0  0  0  0  0  0  0  0
   -6.7909    0.9020   -3.2230 O   0  0  0  0  0  0  0  0  0  0  0  0
   -5.4790   -1.0849   -3.5826 C   0  0  0  0  0  0  0  0  0  0  0  0
   -4.9486   -0.3363   -4.6464 O   0  0  0  0  0  0  0  0  0  0  0  0
   -7.1808    1.0581   -4.1221 H   0  0  0  0  0  0  0  0  0  0  0  0
   -5.5087   -0.5412   -5.4403 H   0  0  0  0  0  0  0  0  0  0  0  0
   -7.6677   -1.8544   -1.0775 C   0  0  0  0  0  0  0  0  0  0  0  0
   -7.1312   -2.6488   -0.0560 O   0  0  0  0  0  0  0  0  0  0  0  0
   -7.8165   -3.3391    0.1448 H   0  0  0  0  0  0  0  0  0  0  0  0
   -1.1202   -4.1646   -4.3954 C   0  0  0  0  0  0  0  0  0  0  0  0
   -1.8967   -4.7804   -5.4927 N   0  0  0  0  0  0  0  0  0  0  0  0
   -2.2559   -4.0465   -6.1463 H   0  0  0  0  0  0  0  0  0  0  0  0
   -1.2039   -5.8310   -6.2695 C   0  0  0  0  0  0  0  0  0  0  0  0
    0.2710   -5.8679   -6.0347 C   0  0  0  0  0  0  0  0  0  0  0  0
    0.6724   -7.0273   -5.5391 C   0  0  0  0  0  0  0  0  0  0  0  0
   -0.4520   -7.9760   -5.3095 C   0  0  0  0  0  0  0  0  0  0  0  0
   -0.1803   -9.1962   -5.9461 O   0  0  0  0  0  0  0  0  0  0  0  0
   -1.6882   -7.2560   -5.9022 C   0  0  0  0  0  0  0  0  0  0  0  0
   -2.2041   -7.9250   -7.0305 O   0  0  0  0  0  0  0  0  0  0  0  0
   -0.8455   -9.8463   -5.5973 H   0  0  0  0  0  0  0  0  0  0  0  0
   -1.4999   -7.9312   -7.7317 H   0  0  0  0  0  0  0  0  0  0  0  0
  1  2  1  0  0  0
  1 12  1  0  0  0
  1 13  1  0  0  0
  2  3  2  0  0  0
  2 11  1  0  0  0
  3  4  1  0  0  0
  4  5  2  0  0  0
  4  8  1  0  0  0
  5  6  1  0  0  0
  5  9  1  0  0  0
  6 27  1  0  0  0
  6  7  2  0  0  0
 27 28  1  0  0  0
 28 30  1  0  0  0
 28 29  1  0  0  0
 30 31  1  0  0  0
 30 35  1  0  0  0
 31 32  2  0  0  0
 32 33  1  0  0  0
 33 34  1  0  0  0
 33 35  1  0  0  0
 34 37  1  0  0  0
 35 36  1  0  0  0
 36 38  1  0  0  0
  7  8  1  0  0  0
  8 15  1  0  0  0
 15 16  1  0  0  0
 15 20  1  0  0  0
 16 17  1  0  0  0
 17 24  1  0  0  0
 17 18  1  0  0  0
 24 25  1  0  0  0
 25 26  1  0  0  0
 18 19  1  0  0  0
 18 20  1  0  0  0
 19 22  1  0  0  0
 20 21  1  0  0  0
 21 23  1  0  0  0
  9 10  2  0  0  0
  9 11  1  0  0  0
 11 14  1  0  0  0
M  END
> <minimizedAffinity>
8.10778

> <CNNscore>
0.5319784880

> <CNNaffinity>
7.6205153465

> <CNN_VS>
4.0539503098

> <CNNaffinity_variance>
2.2243142128

$$$$



 38 41  0  0  0  0  0  0  0  0999 V2000
   -2.7261   -7.7085   -0.6090 N   0  0  0  0  0  0  0  0  0  0  0  0
   -2.7613   -6.4824   -1.3385 C   0  0  0  0  0  0  0  0  0  0  0  0
   -2.4324   -6.4775   -2.6637 N   0  0  0  0  0  0  0  0  0  0  0  0
   -2.4769   -5.3068   -3.3442 C   0  0  0  0  0  0  0  0  0  0  0  0
   -2.8343   -4.1334   -2.7454 C   0  0  0  0  0  0  0  0  0  0  0  0
   -2.7499   -3.1469   -3.7200 C   0  0  0  0  0  0  0  0  0  0  0  0
   -2.3109   -3.7993   -4.8733 C   0  0  0  0  0  0  0  0  0  0  0  0
   -2.1667   -5.1258   -4.6421 N   0  0  0  0  0  0  0  0  0  0  0  0
   -3.1561   -4.1283   -1.3879 C   0  0  0  0  0  0  0  0  0  0  0  0
   -3.4672   -3.0662   -0.7878 O   0  0  0  0  0  0  0  0  0  0  0  0
   -3.1186   -5.3151   -0.7105 N   0  0  0  0  0  0  0  0  0  0  0  0
   -2.9627   -7.7321    0.4084 H   0  0  0  0  0  0  0  0  0  0  0  0
   -2.4657   -8.5991   -1.0869 H   0  0  0  0  0  0  0  0  0  0  0  0
   -3.3613   -5.3306    0.3062 H   0  0  0  0  0  0  0  0  0  0  0  0
   -1.6400   -6.1057   -5.5965 C   0  0  0  0  0  0  0  0  0  0  0  0
   -2.5281   -6.2755   -6.6776 O   0  0  0  0  0  0  0  0  0  0  0  0
   -2.4128   -7.6185   -7.1063 C   0  0  0  0  0  0  0  0  0  0  0  0
   -1.5514   -8.4059   -6.1070 C   0  0  0  0  0  0  0  0  0  0  0  0
   -0.2869   -8.6550   -6.6717 O   0  0  0  0  0  0  0  0  0  0  0  0
   -1.4452   -7.4553   -4.9347 C   0  0  0  0  0  0  0  0  0  0  0  0
   -0.1984   -7.5241   -4.2912 O   0  0  0  0  0  0  0  0  0  0  0  0
    0.1074   -9.4153   -6.1706 H   0  0  0  0  0  0  0  0  0  0  0  0
   -0.2086   -8.3554   -3.7482 H   0  0  0  0  0  0  0  0  0  0  0  0
   -3.8117   -8.2254   -7.2723 C   0  0  0  0  0  0  0  0  0  0  0  0
   -4.2975   -8.6845   -6.0412 O   0  0  0  0  0  0  0  0  0  0  0  0
   -5.1740   -9.1106   -6.2325 H   0  0  0  0  0  0  0  0  0  0  0  0
   -2.9932   -1.6637   -3.5822 C   0  0  0  0  0  0  0  0  0  0  0  0
   -2.3812   -1.1006   -2.3596 N   0  0  0  0  0  0  0  0  0  0  0  0
   -2.9462   -1.3521   -1.5157 H   0  0  0  0  0  0  0  0  0  0  0  0
   -0.9639   -1.4499   -2.1218 C   0  0  0  0  0  0  0  0  0  0  0  0
   -0.7522   -2.2640   -0.8872 C   0  0  0  0  0  0  0  0  0  0  0  0
   -0.2152   -3.4446   -1.1494 C   0  0  0  0  0  0  0  0  0  0  0  0
    0.0018   -3.6683   -2.6053 C   0  0  0  0  0  0  0  0  0  0  0  0
    1.3367   -4.0336   -2.8351 O   0  0  0  0  0  0  0  0  0  0  0  0
   -0.3677   -2.3148   -3.2605 C   0  0  0  0  0  0  0  0  0  0  0  0
    0.7482   -1.6848   -3.8474 O   0  0  0  0  0  0  0  0  0  0  0  0
    1.3772   -4.3661   -3.7702 H   0  0  0  0  0  0  0  0  0  0  0  0
    1.4071   -1.4960   -3.1279 H   0  0  0  0  0  0  0  0  0  0  0  0
  1  2  1  0  0  0
  1 12  1  0  0  0
  1 13  1  0  0  0
  2  3  2  0  0  0
  2 11  1  0  0  0
  3  4  1  0  0  0
  4  5  2  0  0  0
  4  8  1  0  0  0
  5  6  1  0  0  0
  5  9  1  0  0  0
  6 27  1  0  0  0
  6  7  2  0  0  0
 27 28  1  0  0  0
 28 30  1  0  0  0
 28 29  1  0  0  0
 30 31  1  0  0  0
 30 35  1  0  0  0
 31 32  2  0  0  0
 32 33  1  0  0  0
 33 34  1  0  0  0
 33 35  1  0  0  0
 34 37  1  0  0  0
 35 36  1  0  0  0
 36 38  1  0  0  0
  7  8  1  0  0  0
  8 15  1  0  0  0
 15 16  1  0  0  0
 15 20  1  0  0  0
 16 17  1  0  0  0
 17 24  1  0  0  0
 17 18  1  0  0  0
 24 25  1  0  0  0
 25 26  1  0  0  0
 18 19  1  0  0  0
 18 20  1  0  0  0
 19 22  1  0  0  0
 20 21  1  0  0  0
 21 23  1  0  0  0
  9 10  2  0  0  0
  9 11  1  0  0  0
 11 14  1  0  0  0
M  END
> <minimizedAffinity>
4.19822

> <CNNscore>
0.4473749697

> <CNNaffinity>
6.8619475365

> <CNN_VS>
3.0698635578

> <CNNaffinity_variance>
1.4226768017

$$$$



 38 41  0  0  0  0  0  0  0  0999 V2000
   -3.1814   -7.0072   -0.5119 N   0  0  0  0  0  0  0  0  0  0  0  0
   -2.9087   -6.8649   -1.9054 C   0  0  0  0  0  0  0  0  0  0  0  0
   -2.4603   -5.6677   -2.3851 N   0  0  0  0  0  0  0  0  0  0  0  0
   -2.1996   -5.5501   -3.7094 C   0  0  0  0  0  0  0  0  0  0  0  0
   -2.3766   -6.5880   -4.5780 C   0  0  0  0  0  0  0  0  0  0  0  0
   -2.0395   -6.1137   -5.8396 C   0  0  0  0  0  0  0  0  0  0  0  0
   -1.6937   -4.7742   -5.6536 C   0  0  0  0  0  0  0  0  0  0  0  0
   -1.7728   -4.4414   -4.3433 N   0  0  0  0  0  0  0  0  0  0  0  0
   -2.8496   -7.8093   -4.0974 C   0  0  0  0  0  0  0  0  0  0  0  0
   -3.0517   -8.7866   -4.8649 O   0  0  0  0  0  0  0  0  0  0  0  0
   -3.1008   -7.9233   -2.7585 N   0  0  0  0  0  0  0  0  0  0  0  0
   -3.5364   -7.9112   -0.1263 H   0  0  0  0  0  0  0  0  0  0  0  0
   -3.0254   -6.2074    0.1404 H   0  0  0  0  0  0  0  0  0  0  0  0
   -3.4514   -8.8326   -2.3802 H   0  0  0  0  0  0  0  0  0  0  0  0
   -1.5669   -3.0997   -3.7902 C   0  0  0  0  0  0  0  0  0  0  0  0
   -0.5891   -3.1236   -2.7754 O   0  0  0  0  0  0  0  0  0  0  0  0
   -0.9385   -2.1268   -1.8347 C   0  0  0  0  0  0  0  0  0  0  0  0
   -2.3340   -1.5747   -2.1637 C   0  0  0  0  0  0  0  0  0  0  0  0
   -2.2108   -0.2861   -2.7154 O   0  0  0  0  0  0  0  0  0  0  0  0
   -2.8496   -2.5585   -3.1911 C   0  0  0  0  0  0  0  0  0  0  0  0
   -3.6457   -1.9488   -4.1750 O   0  0  0  0  0  0  0  0  0  0  0  0
   -3.0915    0.1584   -2.6081 H   0  0  0  0  0  0  0  0  0  0  0  0
   -4.5265   -1.7709   -3.7525 H   0  0  0  0  0  0  0  0  0  0  0  0
   -0.8635   -2.7102   -0.4180 C   0  0  0  0  0  0  0  0  0  0  0  0
   -1.9476   -3.5651   -0.1805 O   0  0  0  0  0  0  0  0  0  0  0  0
   -1.8647   -3.8589    0.7645 H   0  0  0  0  0  0  0  0  0  0  0  0
   -2.0988   -6.8354   -7.1638 C   0  0  0  0  0  0  0  0  0  0  0  0
   -1.0836   -7.9050   -7.2719 N   0  0  0  0  0  0  0  0  0  0  0  0
   -0.5581   -7.8240   -8.1731 H   0  0  0  0  0  0  0  0  0  0  0  0
   -0.1227   -8.0049   -6.1521 C   0  0  0  0  0  0  0  0  0  0  0  0
    0.5111   -9.3524   -6.0321 C   0  0  0  0  0  0  0  0  0  0  0  0
    1.8268   -9.3028   -6.1644 C   0  0  0  0  0  0  0  0  0  0  0  0
    2.3271   -7.9269   -6.4357 C   0  0  0  0  0  0  0  0  0  0  0  0
    3.3262   -7.5943   -5.5088 O   0  0  0  0  0  0  0  0  0  0  0  0
    1.0713   -7.0300   -6.3072 C   0  0  0  0  0  0  0  0  0  0  0  0
    1.1556   -6.1496   -5.2098 O   0  0  0  0  0  0  0  0  0  0  0  0
    3.7619   -6.7705   -5.8527 H   0  0  0  0  0  0  0  0  0  0  0  0
    1.2157   -6.6963   -4.3821 H   0  0  0  0  0  0  0  0  0  0  0  0
  1  2  1  0  0  0
  1 12  1  0  0  0
  1 13  1  0  0  0
  2  3  2  0  0  0
  2 11  1  0  0  0
  3  4  1  0  0  0
  4  5  2  0  0  0
  4  8  1  0  0  0
  5  6  1  0  0  0
  5  9  1  0  0  0
  6 27  1  0  0  0
  6  7  2  0  0  0
 27 28  1  0  0  0
 28 30  1  0  0  0
 28 29  1  0  0  0
 30 31  1  0  0  0
 30 35  1  0  0  0
 31 32  2  0  0  0
 32 33  1  0  0  0
 33 34  1  0  0  0
 33 35  1  0  0  0
 34 37  1  0  0  0
 35 36  1  0  0  0
 36 38  1  0  0  0
  7  8  1  0  0  0
  8 15  1  0  0  0
 15 16  1  0  0  0
 15 20  1  0  0  0
 16 17  1  0  0  0
 17 24  1  0  0  0
 17 18  1  0  0  0
 24 25  1  0  0  0
 25 26  1  0  0  0
 18 19  1  0  0  0
 18 20  1  0  0  0
 19 22  1  0  0  0
 20 21  1  0  0  0
 21 23  1  0  0  0
  9 10  2  0  0  0
  9 11  1  0  0  0
 11 14  1  0  0  0
M  END
> <minimizedAffinity>
1.63025

> <CNNscore>
0.4322528243

> <CNNaffinity>
6.6025238037

> <CNN_VS>
2.8539595604

> <CNNaffinity_variance>
1.4917838573

$$$$



 38 41  0  0  0  0  0  0  0  0999 V2000
   -2.9898   -7.4618    0.3412 N   0  0  0  0  0  0  0  0  0  0  0  0
   -2.8834   -6.4376   -0.6468 C   0  0  0  0  0  0  0  0  0  0  0  0
   -2.6822   -6.7804   -1.9532 N   0  0  0  0  0  0  0  0  0  0  0  0
   -2.5898   -5.7968   -2.8804 C   0  0  0  0  0  0  0  0  0  0  0  0
   -2.6858   -4.4764   -2.5486 C   0  0  0  0  0  0  0  0  0  0  0  0
   -2.5254   -3.7569   -3.7263 C   0  0  0  0  0  0  0  0  0  0  0  0
   -2.3119   -4.7131   -4.7206 C   0  0  0  0  0  0  0  0  0  0  0  0
   -2.3745   -5.9614   -4.1995 N   0  0  0  0  0  0  0  0  0  0  0  0
   -2.8755   -4.1184   -1.2136 C   0  0  0  0  0  0  0  0  0  0  0  0
   -2.9449   -2.9129   -0.8574 O   0  0  0  0  0  0  0  0  0  0  0  0
   -2.9778   -5.1166   -0.2852 N   0  0  0  0  0  0  0  0  0  0  0  0
   -3.1321   -7.2208    1.3479 H   0  0  0  0  0  0  0  0  0  0  0  0
   -2.9297   -8.4672    0.0672 H   0  0  0  0  0  0  0  0  0  0  0  0
   -3.1246   -4.8668    0.7192 H   0  0  0  0  0  0  0  0  0  0  0  0
   -2.1122   -7.2047   -4.9301 C   0  0  0  0  0  0  0  0  0  0  0  0
   -0.9031   -7.7888   -4.5020 O   0  0  0  0  0  0  0  0  0  0  0  0
   -0.3402   -8.4504   -5.6183 C   0  0  0  0  0  0  0  0  0  0  0  0
   -1.1351   -8.0929   -6.8836 C   0  0  0  0  0  0  0  0  0  0  0  0
   -1.9186   -9.1951   -7.2726 O   0  0  0  0  0  0  0  0  0  0  0  0
   -2.0046   -6.9450   -6.4195 C   0  0  0  0  0  0  0  0  0  0  0  0
   -3.2732   -6.9465   -7.0228 O   0  0  0  0  0  0  0  0  0  0  0  0
   -2.1468   -9.0626   -8.2292 H   0  0  0  0  0  0  0  0  0  0  0  0
   -3.1443   -6.6096   -7.9479 H   0  0  0  0  0  0  0  0  0  0  0  0
    1.1432   -8.0793   -5.7396 C   0  0  0  0  0  0  0  0  0  0  0  0
    1.2902   -6.7004   -5.9382 O   0  0  0  0  0  0  0  0  0  0  0  0
    2.2627   -6.5422   -6.0627 H   0  0  0  0  0  0  0  0  0  0  0  0
   -2.4995   -2.2603   -3.9194 C   0  0  0  0  0  0  0  0  0  0  0  0
   -1.4002   -1.6118   -3.1728 N   0  0  0  0  0  0  0  0  0  0  0  0
   -1.6760   -1.4524   -2.1761 H   0  0  0  0  0  0  0  0  0  0  0  0
   -0.0916   -2.2995   -3.2146 C   0  0  0  0  0  0  0  0  0  0  0  0
    0.4265   -2.6726   -1.8639 C   0  0  0  0  0  0  0  0  0  0  0  0
    0.5934   -3.9787   -1.7327 C   0  0  0  0  0  0  0  0  0  0  0  0
    0.1865   -4.7366   -2.9479 C   0  0  0  0  0  0  0  0  0  0  0  0
    1.2372   -5.5691   -3.3615 O   0  0  0  0  0  0  0  0  0  0  0  0
   -0.1513   -3.6404   -3.9882 C   0  0  0  0  0  0  0  0  0  0  0  0
    0.7469   -3.6420   -5.0744 O   0  0  0  0  0  0  0  0  0  0  0  0
    0.8517   -6.1909   -4.0335 H   0  0  0  0  0  0  0  0  0  0  0  0
    1.6550   -3.4463   -4.7215 H   0  0  0  0  0  0  0  0  0  0  0  0
  1  2  1  0  0  0
  1 12  1  0  0  0
  1 13  1  0  0  0
  2  3  2  0  0  0
  2 11  1  0  0  0
  3  4  1  0  0  0
  4  5  2  0  0  0
  4  8  1  0  0  0
  5  6  1  0  0  0
  5  9  1  0  0  0
  6 27  1  0  0  0
  6  7  2  0  0  0
 27 28  1  0  0  0
 28 30  1  0  0  0
 28 29  1  0  0  0
 30 31  1  0  0  0
 30 35  1  0  0  0
 31 32  2  0  0  0
 32 33  1  0  0  0
 33 34  1  0  0  0
 33 35  1  0  0  0
 34 37  1  0  0  0
 35 36  1  0  0  0
 36 38  1  0  0  0
  7  8  1  0  0  0
  8 15  1  0  0  0
 15 16  1  0  0  0
 15 20  1  0  0  0
 16 17  1  0  0  0
 17 24  1  0  0  0
 17 18  1  0  0  0
 24 25  1  0  0  0
 25 26  1  0  0  0
 18 19  1  0  0  0
 18 20  1  0  0  0
 19 22  1  0  0  0
 20 21  1  0  0  0
 21 23  1  0  0  0
  9 10  2  0  0  0
  9 11  1  0  0  0
 11 14  1  0  0  0
M  END
> <minimizedAffinity>
0.95579

> <CNNscore>
0.4310737252

> <CNNaffinity>
7.1061906815

> <CNN_VS>
3.0632920265

> <CNNaffinity_variance>
2.0528535843

$$$$



 38 41  0  0  0  0  0  0  0  0999 V2000
    1.1544   -0.6498   -4.3320 N   0  0  0  0  0  0  0  0  0  0  0  0
    0.2324   -1.6347   -3.8667 C   0  0  0  0  0  0  0  0  0  0  0  0
    0.2415   -2.8818   -4.4227 N   0  0  0  0  0  0  0  0  0  0  0  0
   -0.6356   -3.8078   -3.9658 C   0  0  0  0  0  0  0  0  0  0  0  0
   -1.5301   -3.5312   -2.9726 C   0  0  0  0  0  0  0  0  0  0  0  0
   -2.2765   -4.6862   -2.7756 C   0  0  0  0  0  0  0  0  0  0  0  0
   -1.7898   -5.6072   -3.7047 C   0  0  0  0  0  0  0  0  0  0  0  0
   -0.7701   -5.0699   -4.4156 N   0  0  0  0  0  0  0  0  0  0  0  0
   -1.5556   -2.2543   -2.4110 C   0  0  0  0  0  0  0  0  0  0  0  0
   -2.3795   -1.9462   -1.5103 O   0  0  0  0  0  0  0  0  0  0  0  0
   -0.6610   -1.3284   -2.8703 N   0  0  0  0  0  0  0  0  0  0  0  0
    1.1562    0.3139   -3.9283 H   0  0  0  0  0  0  0  0  0  0  0  0
    1.8421   -0.8837   -5.0816 H   0  0  0  0  0  0  0  0  0  0  0  0
   -0.6629   -0.3679   -2.4577 H   0  0  0  0  0  0  0  0  0  0  0  0
   -0.0777   -5.7152   -5.5348 C   0  0  0  0  0  0  0  0  0  0  0  0
   -0.9944   -6.0942   -6.5361 O   0  0  0  0  0  0  0  0  0  0  0  0
   -0.4895   -7.2681   -7.1425 C   0  0  0  0  0  0  0  0  0  0  0  0
    0.7164   -7.7834   -6.3419 C   0  0  0  0  0  0  0  0  0  0  0  0
    1.9003   -7.5209   -7.0557 O   0  0  0  0  0  0  0  0  0  0  0  0
    0.6527   -6.9607   -5.0738 C   0  0  0  0  0  0  0  0  0  0  0  0
    1.9244   -6.6400   -4.5703 O   0  0  0  0  0  0  0  0  0  0  0  0
    2.5942   -8.1331   -6.6973 H   0  0  0  0  0  0  0  0  0  0  0  0
    2.2718   -7.4647   -4.1399 H   0  0  0  0  0  0  0  0  0  0  0  0
   -1.6076   -8.3130   -7.2462 C   0  0  0  0  0  0  0  0  0  0  0  0
   -2.8271   -7.7721   -6.8186 O   0  0  0  0  0  0  0  0  0  0  0  0
   -3.4868   -8.5134   -6.8599 H   0  0  0  0  0  0  0  0  0  0  0  0
   -3.4290   -4.9124   -1.8276 C   0  0  0  0  0  0  0  0  0  0  0  0
   -3.0644   -5.7848   -0.6907 N   0  0  0  0  0  0  0  0  0  0  0  0
   -2.2907   -6.4359   -0.9597 H   0  0  0  0  0  0  0  0  0  0  0  0
   -2.7091   -5.0965    0.5692 C   0  0  0  0  0  0  0  0  0  0  0  0
   -1.5114   -4.2123    0.4454 C   0  0  0  0  0  0  0  0  0  0  0  0
   -1.7904   -2.9472    0.7150 C   0  0  0  0  0  0  0  0  0  0  0  0
   -3.2286   -2.7295    1.0328 C   0  0  0  0  0  0  0  0  0  0  0  0
   -3.3470   -2.0621    2.2611 O   0  0  0  0  0  0  0  0  0  0  0  0
   -3.8337   -4.1544    1.0671 C   0  0  0  0  0  0  0  0  0  0  0  0
   -4.2679   -4.5178    2.3579 O   0  0  0  0  0  0  0  0  0  0  0  0
   -4.2920   -1.7629    2.3254 H   0  0  0  0  0  0  0  0  0  0  0  0
   -3.4766   -4.5169    2.9590 H   0  0  0  0  0  0  0  0  0  0  0  0
  1  2  1  0  0  0
  1 12  1  0  0  0
  1 13  1  0  0  0
  2  3  2  0  0  0
  2 11  1  0  0  0
  3  4  1  0  0  0
  4  5  2  0  0  0
  4  8  1  0  0  0
  5  6  1  0  0  0
  5  9  1  0  0  0
  6 27  1  0  0  0
  6  7  2  0  0  0
 27 28  1  0  0  0
 28 30  1  0  0  0
 28 29  1  0  0  0
 30 31  1  0  0  0
 30 35  1  0  0  0
 31 32  2  0  0  0
 32 33  1  0  0  0
 33 34  1  0  0  0
 33 35  1  0  0  0
 34 37  1  0  0  0
 35 36  1  0  0  0
 36 38  1  0  0  0
  7  8  1  0  0  0
  8 15  1  0  0  0
 15 16  1  0  0  0
 15 20  1  0  0  0
 16 17  1  0  0  0
 17 24  1  0  0  0
 17 18  1  0  0  0
 24 25  1  0  0  0
 25 26  1  0  0  0
 18 19  1  0  0  0
 18 20  1  0  0  0
 19 22  1  0  0  0
 20 21  1  0  0  0
 21 23  1  0  0  0
  9 10  2  0  0  0
  9 11  1  0  0  0
 11 14  1  0  0  0
M  END
> <minimizedAffinity>
3.65478

> <CNNscore>
0.4282988310

> <CNNaffinity>
6.8796815872

> <CNN_VS>
2.9465596676

> <CNNaffinity_variance>
1.3457561731

$$$$



 38 41  0  0  0  0  0  0  0  0999 V2000
    3.2859   -4.9561   -1.5161 N   0  0  0  0  0  0  0  0  0  0  0  0
    1.8756   -4.8629   -1.7133 C   0  0  0  0  0  0  0  0  0  0  0  0
    1.3217   -5.3570   -2.8594 N   0  0  0  0  0  0  0  0  0  0  0  0
   -0.0195   -5.2669   -3.0292 C   0  0  0  0  0  0  0  0  0  0  0  0
   -0.8316   -4.6935   -2.0940 C   0  0  0  0  0  0  0  0  0  0  0  0
   -2.1244   -4.7518   -2.5995 C   0  0  0  0  0  0  0  0  0  0  0  0
   -2.0069   -5.3515   -3.8545 C   0  0  0  0  0  0  0  0  0  0  0  0
   -0.7178   -5.6845   -4.1022 N   0  0  0  0  0  0  0  0  0  0  0  0
   -0.2706   -4.1722   -0.9278 C   0  0  0  0  0  0  0  0  0  0  0  0
   -0.9772   -3.6122   -0.0492 O   0  0  0  0  0  0  0  0  0  0  0  0
    1.0820   -4.2758   -0.7592 N   0  0  0  0  0  0  0  0  0  0  0  0
    3.7312   -4.5738   -0.6516 H   0  0  0  0  0  0  0  0  0  0  0  0
    3.8899   -5.4121   -2.2349 H   0  0  0  0  0  0  0  0  0  0  0  0
    1.5189   -3.8949    0.1107 H   0  0  0  0  0  0  0  0  0  0  0  0
   -0.2088   -6.2506   -5.3547 C   0  0  0  0  0  0  0  0  0  0  0  0
   -1.2450   -6.3780   -6.3015 O   0  0  0  0  0  0  0  0  0  0  0  0
   -0.9493   -7.5109   -7.0950 C   0  0  0  0  0  0  0  0  0  0  0  0
    0.2388   -8.2707   -6.4853 C   0  0  0  0  0  0  0  0  0  0  0  0
    1.3856   -8.0579   -7.2724 O   0  0  0  0  0  0  0  0  0  0  0  0
    0.3862   -7.6255   -5.1248 C   0  0  0  0  0  0  0  0  0  0  0  0
    1.7254   -7.5308   -4.7111 O   0  0  0  0  0  0  0  0  0  0  0  0
    2.0195   -8.7917   -7.0618 H   0  0  0  0  0  0  0  0  0  0  0  0
    1.9948   -8.4418   -4.4221 H   0  0  0  0  0  0  0  0  0  0  0  0
   -2.1999   -8.3905   -7.2186 C   0  0  0  0  0  0  0  0  0  0  0  0
   -3.3602   -7.6122   -7.1170 O   0  0  0  0  0  0  0  0  0  0  0  0
   -4.1222   -8.2483   -7.1493 H   0  0  0  0  0  0  0  0  0  0  0  0
   -3.3986   -4.2194   -1.9904 C   0  0  0  0  0  0  0  0  0  0  0  0
   -3.7024   -4.8377   -0.6820 N   0  0  0  0  0  0  0  0  0  0  0  0
   -2.8546   -5.3120   -0.2933 H   0  0  0  0  0  0  0  0  0  0  0  0
   -4.2747   -3.9397    0.3443 C   0  0  0  0  0  0  0  0  0  0  0  0
   -4.3304   -4.5529    1.7054 C   0  0  0  0  0  0  0  0  0  0  0  0
   -3.6191   -3.8750    2.5917 C   0  0  0  0  0  0  0  0  0  0  0  0
   -2.9200   -2.7036    1.9950 C   0  0  0  0  0  0  0  0  0  0  0  0
   -3.2312   -1.5449    2.7219 O   0  0  0  0  0  0  0  0  0  0  0  0
   -3.4378   -2.6502    0.5366 C   0  0  0  0  0  0  0  0  0  0  0  0
   -4.2120   -1.4990    0.2880 O   0  0  0  0  0  0  0  0  0  0  0  0
   -2.5927   -0.8467    2.4196 H   0  0  0  0  0  0  0  0  0  0  0  0
   -5.0066   -1.5294    0.8840 H   0  0  0  0  0  0  0  0  0  0  0  0
  1  2  1  0  0  0
  1 12  1  0  0  0
  1 13  1  0  0  0
  2  3  2  0  0  0
  2 11  1  0  0  0
  3  4  1  0  0  0
  4  5  2  0  0  0
  4  8  1  0  0  0
  5  6  1  0  0  0
  5  9  1  0  0  0
  6 27  1  0  0  0
  6  7  2  0  0  0
 27 28  1  0  0  0
 28 30  1  0  0  0
 28 29  1  0  0  0
 30 31  1  0  0  0
 30 35  1  0  0  0
 31 32  2  0  0  0
 32 33  1  0  0  0
 33 34  1  0  0  0
 33 35  1  0  0  0
 34 37  1  0  0  0
 35 36  1  0  0  0
 36 38  1  0  0  0
  7  8  1  0  0  0
  8 15  1  0  0  0
 15 16  1  0  0  0
 15 20  1  0  0  0
 16 17  1  0  0  0
 17 24  1  0  0  0
 17 18  1  0  0  0
 24 25  1  0  0  0
 25 26  1  0  0  0
 18 19  1  0  0  0
 18 20  1  0  0  0
 19 22  1  0  0  0
 20 21  1  0  0  0
 21 23  1  0  0  0
  9 10  2  0  0  0
  9 11  1  0  0  0
 11 14  1  0  0  0
M  END
> <minimizedAffinity>
10.12507

> <CNNscore>
0.4279669523

> <CNNaffinity>
6.6342620850

> <CNN_VS>
2.8392448425

> <CNNaffinity_variance>
1.9139639139

$$$$



 38 41  0  0  0  0  0  0  0  0999 V2000
   -4.1417   -4.2730    2.1741 N   0  0  0  0  0  0  0  0  0  0  0  0
   -3.3963   -4.0513    0.9776 C   0  0  0  0  0  0  0  0  0  0  0  0
   -2.8949   -2.8083    0.7170 N   0  0  0  0  0  0  0  0  0  0  0  0
   -2.1837   -2.6152   -0.4199 C   0  0  0  0  0  0  0  0  0  0  0  0
   -1.9584   -3.6218   -1.3138 C   0  0  0  0  0  0  0  0  0  0  0  0
   -1.2252   -3.0711   -2.3575 C   0  0  0  0  0  0  0  0  0  0  0  0
   -1.0696   -1.7225   -2.0323 C   0  0  0  0  0  0  0  0  0  0  0  0
   -1.6401   -1.4547   -0.8337 N   0  0  0  0  0  0  0  0  0  0  0  0
   -2.4813   -4.8904   -1.0617 C   0  0  0  0  0  0  0  0  0  0  0  0
   -2.3203   -5.8426   -1.8694 O   0  0  0  0  0  0  0  0  0  0  0  0
   -3.1892   -5.0800    0.0923 N   0  0  0  0  0  0  0  0  0  0  0  0
   -4.5441   -5.2136    2.3868 H   0  0  0  0  0  0  0  0  0  0  0  0
   -4.2909   -3.4954    2.8542 H   0  0  0  0  0  0  0  0  0  0  0  0
   -3.5843   -6.0253    0.2996 H   0  0  0  0  0  0  0  0  0  0  0  0
   -1.7472   -0.1293   -0.2172 C   0  0  0  0  0  0  0  0  0  0  0  0
   -0.7733    0.7443   -0.7414 O   0  0  0  0  0  0  0  0  0  0  0  0
   -0.4143    1.6393    0.2933 C   0  0  0  0  0  0  0  0  0  0  0  0
   -1.0464    1.1781    1.6156 C   0  0  0  0  0  0  0  0  0  0  0  0
   -2.1155    2.0307    1.9472 O   0  0  0  0  0  0  0  0  0  0  0  0
   -1.5430   -0.2117    1.2823 C   0  0  0  0  0  0  0  0  0  0  0  0
   -2.7449   -0.5300    1.9364 O   0  0  0  0  0  0  0  0  0  0  0  0
   -2.2785    1.9230    2.9201 H   0  0  0  0  0  0  0  0  0  0  0  0
   -2.5066   -0.7299    2.8794 H   0  0  0  0  0  0  0  0  0  0  0  0
    1.1141    1.7340    0.3817 C   0  0  0  0  0  0  0  0  0  0  0  0
    1.6114    2.5929   -0.6070 O   0  0  0  0  0  0  0  0  0  0  0  0
    2.6007    2.5624   -0.5262 H   0  0  0  0  0  0  0  0  0  0  0  0
   -0.7495   -3.7345   -3.6270 C   0  0  0  0  0  0  0  0  0  0  0  0
   -1.8624   -4.0769   -4.5384 N   0  0  0  0  0  0  0  0  0  0  0  0
   -1.9915   -3.3293   -5.2589 H   0  0  0  0  0  0  0  0  0  0  0  0
   -1.7728   -5.3923   -5.2085 C   0  0  0  0  0  0  0  0  0  0  0  0
   -1.5751   -5.2936   -6.6860 C   0  0  0  0  0  0  0  0  0  0  0  0
   -0.4465   -5.8603   -7.0811 C   0  0  0  0  0  0  0  0  0  0  0  0
    0.3479   -6.4127   -5.9495 C   0  0  0  0  0  0  0  0  0  0  0  0
    0.6557   -7.7585   -6.1986 O   0  0  0  0  0  0  0  0  0  0  0  0
   -0.5663   -6.2286   -4.7133 C   0  0  0  0  0  0  0  0  0  0  0  0
   -0.9880   -7.4608   -4.1744 O   0  0  0  0  0  0  0  0  0  0  0  0
    1.3453   -8.0146   -5.5311 H   0  0  0  0  0  0  0  0  0  0  0  0
   -1.5193   -7.9333   -4.8686 H   0  0  0  0  0  0  0  0  0  0  0  0
  1  2  1  0  0  0
  1 12  1  0  0  0
  1 13  1  0  0  0
  2  3  2  0  0  0
  2 11  1  0  0  0
  3  4  1  0  0  0
  4  5  2  0  0  0
  4  8  1  0  0  0
  5  6  1  0  0  0
  5  9  1  0  0  0
  6 27  1  0  0  0
  6  7  2  0  0  0
 27 28  1  0  0  0
 28 30  1  0  0  0
 28 29  1  0  0  0
 30 31  1  0  0  0
 30 35  1  0  0  0
 31 32  2  0  0  0
 32 33  1  0  0  0
 33 34  1  0  0  0
 33 35  1  0  0  0
 34 37  1  0  0  0
 35 36  1  0  0  0
 36 38  1  0  0  0
  7  8  1  0  0  0
  8 15  1  0  0  0
 15 16  1  0  0  0
 15 20  1  0  0  0
 16 17  1  0  0  0
 17 24  1  0  0  0
 17 18  1  0  0  0
 24 25  1  0  0  0
 25 26  1  0  0  0
 18 19  1  0  0  0
 18 20  1  0  0  0
 19 22  1  0  0  0
 20 21  1  0  0  0
 21 23  1  0  0  0
  9 10  2  0  0  0
  9 11  1  0  0  0
 11 14  1  0  0  0
M  END
> <minimizedAffinity>
13.23355

> <CNNscore>
0.4256777167

> <CNNaffinity>
7.1463584900

> <CNN_VS>
3.0420455933

> <CNNaffinity_variance>
1.1991394758

$$$$



 38 41  0  0  0  0  0  0  0  0999 V2000
    2.8980   -5.3878   -1.7982 N   0  0  0  0  0  0  0  0  0  0  0  0
    1.5760   -4.9077   -2.0400 C   0  0  0  0  0  0  0  0  0  0  0  0
    0.8964   -5.3337   -3.1450 N   0  0  0  0  0  0  0  0  0  0  0  0
   -0.3603   -4.8739   -3.3574 C   0  0  0  0  0  0  0  0  0  0  0  0
   -0.9644   -3.9953   -2.5053 C   0  0  0  0  0  0  0  0  0  0  0  0
   -2.2198   -3.7253   -3.0356 C   0  0  0  0  0  0  0  0  0  0  0  0
   -2.2890   -4.4589   -4.2211 C   0  0  0  0  0  0  0  0  0  0  0  0
   -1.1553   -5.1774   -4.4011 N   0  0  0  0  0  0  0  0  0  0  0  0
   -0.2699   -3.5435   -1.3828 C   0  0  0  0  0  0  0  0  0  0  0  0
   -0.7772   -2.7143   -0.5828 O   0  0  0  0  0  0  0  0  0  0  0  0
    0.9938   -4.0196   -1.1699 N   0  0  0  0  0  0  0  0  0  0  0  0
    3.4397   -5.0653   -0.9650 H   0  0  0  0  0  0  0  0  0  0  0  0
    3.3385   -6.0717   -2.4522 H   0  0  0  0  0  0  0  0  0  0  0  0
    1.5271   -3.6954   -0.3313 H   0  0  0  0  0  0  0  0  0  0  0  0
   -0.8403   -5.9932   -5.5774 C   0  0  0  0  0  0  0  0  0  0  0  0
   -1.8715   -5.9072   -6.5342 O   0  0  0  0  0  0  0  0  0  0  0  0
   -1.9257   -7.1520   -7.2034 C   0  0  0  0  0  0  0  0  0  0  0  0
   -1.0119   -8.1604   -6.4902 C   0  0  0  0  0  0  0  0  0  0  0  0
    0.1437   -8.3752   -7.2637 O   0  0  0  0  0  0  0  0  0  0  0  0
   -0.6759   -7.4510   -5.1967 C   0  0  0  0  0  0  0  0  0  0  0  0
    0.6333   -7.7115   -4.7590 O   0  0  0  0  0  0  0  0  0  0  0  0
    0.5341   -9.2371   -6.9646 H   0  0  0  0  0  0  0  0  0  0  0  0
    0.6235   -8.6268   -4.3741 H   0  0  0  0  0  0  0  0  0  0  0  0
   -3.3804   -7.6338   -7.2727 C   0  0  0  0  0  0  0  0  0  0  0  0
   -3.6432   -8.5525   -6.2483 O   0  0  0  0  0  0  0  0  0  0  0  0
   -4.5770   -8.8607   -6.3875 H   0  0  0  0  0  0  0  0  0  0  0  0
   -3.2792   -2.7844   -2.5155 C   0  0  0  0  0  0  0  0  0  0  0  0
   -3.0361   -2.3759   -1.1154 N   0  0  0  0  0  0  0  0  0  0  0  0
   -3.8223   -1.7819   -0.7634 H   0  0  0  0  0  0  0  0  0  0  0  0
   -2.7809   -3.4702   -0.1538 C   0  0  0  0  0  0  0  0  0  0  0  0
   -3.0442   -3.0866    1.2658 C   0  0  0  0  0  0  0  0  0  0  0  0
   -3.9849   -3.8328    1.8220 C   0  0  0  0  0  0  0  0  0  0  0  0
   -4.5607   -4.8313    0.8794 C   0  0  0  0  0  0  0  0  0  0  0  0
   -4.4935   -6.1126    1.4468 O   0  0  0  0  0  0  0  0  0  0  0  0
   -3.6942   -4.6977   -0.3970 C   0  0  0  0  0  0  0  0  0  0  0  0
   -2.9329   -5.8571   -0.6478 O   0  0  0  0  0  0  0  0  0  0  0  0
   -5.0646   -6.6973    0.8823 H   0  0  0  0  0  0  0  0  0  0  0  0
   -2.3140   -5.9890    0.1184 H   0  0  0  0  0  0  0  0  0  0  0  0
  1  2  1  0  0  0
  1 12  1  0  0  0
  1 13  1  0  0  0
  2  3  2  0  0  0
  2 11  1  0  0  0
  3  4  1  0  0  0
  4  5  2  0  0  0
  4  8  1  0  0  0
  5  6  1  0  0  0
  5  9  1  0  0  0
  6 27  1  0  0  0
  6  7  2  0  0  0
 27 28  1  0  0  0
 28 30  1  0  0  0
 28 29  1  0  0  0
 30 31  1  0  0  0
 30 35  1  0  0  0
 31 32  2  0  0  0
 32 33  1  0  0  0
 33 34  1  0  0  0
 33 35  1  0  0  0
 34 37  1  0  0  0
 35 36  1  0  0  0
 36 38  1  0  0  0
  7  8  1  0  0  0
  8 15  1  0  0  0
 15 16  1  0  0  0
 15 20  1  0  0  0
 16 17  1  0  0  0
 17 24  1  0  0  0
 17 18  1  0  0  0
 24 25  1  0  0  0
 25 26  1  0  0  0
 18 19  1  0  0  0
 18 20  1  0  0  0
 19 22  1  0  0  0
 20 21  1  0  0  0
 21 23  1  0  0  0
  9 10  2  0  0  0
  9 11  1  0  0  0
 11 14  1  0  0  0
M  END
> <minimizedAffinity>
1.56094

> <CNNscore>
0.4151078165

> <CNNaffinity>
6.7311196327

> <CNN_VS>
2.7941403389

> <CNNaffinity_variance>
1.5144674778

$$$$



 38 41  0  0  0  0  0  0  0  0999 V2000
    2.1893   -4.9461   -0.8279 N   0  0  0  0  0  0  0  0  0  0  0  0
    1.3166   -4.9192   -1.9568 C   0  0  0  0  0  0  0  0  0  0  0  0
   -0.0230   -4.7342   -1.7682 N   0  0  0  0  0  0  0  0  0  0  0  0
   -0.8378   -4.7046   -2.8504 C   0  0  0  0  0  0  0  0  0  0  0  0
   -0.3621   -4.8595   -4.1203 C   0  0  0  0  0  0  0  0  0  0  0  0
   -1.4614   -4.7984   -4.9677 C   0  0  0  0  0  0  0  0  0  0  0  0
   -2.5668   -4.6303   -4.1321 C   0  0  0  0  0  0  0  0  0  0  0  0
   -2.1756   -4.5516   -2.8380 N   0  0  0  0  0  0  0  0  0  0  0  0
    1.0034   -5.0649   -4.3191 C   0  0  0  0  0  0  0  0  0  0  0  0
    1.4837   -5.2375   -5.4700 O   0  0  0  0  0  0  0  0  0  0  0  0
    1.8204   -5.0835   -3.2233 N   0  0  0  0  0  0  0  0  0  0  0  0
    3.2159   -5.0981   -0.9494 H   0  0  0  0  0  0  0  0  0  0  0  0
    1.8102   -4.8102    0.1350 H   0  0  0  0  0  0  0  0  0  0  0  0
    2.8469   -5.2316   -3.3540 H   0  0  0  0  0  0  0  0  0  0  0  0
   -3.0703   -4.4630   -1.6804 C   0  0  0  0  0  0  0  0  0  0  0  0
   -3.1451   -3.1370   -1.2087 O   0  0  0  0  0  0  0  0  0  0  0  0
   -3.3360   -3.2015    0.1913 C   0  0  0  0  0  0  0  0  0  0  0  0
   -3.1665   -4.6523    0.6679 C   0  0  0  0  0  0  0  0  0  0  0  0
   -4.4264   -5.1915    0.9872 O   0  0  0  0  0  0  0  0  0  0  0  0
   -2.5745   -5.3361   -0.5450 C   0  0  0  0  0  0  0  0  0  0  0  0
   -3.0231   -6.6588   -0.6954 O   0  0  0  0  0  0  0  0  0  0  0  0
   -4.2642   -5.9692    1.5819 H   0  0  0  0  0  0  0  0  0  0  0  0
   -2.5319   -7.1997   -0.0230 H   0  0  0  0  0  0  0  0  0  0  0  0
   -2.3601   -2.2437    0.8864 C   0  0  0  0  0  0  0  0  0  0  0  0
   -2.7871   -1.9690    2.1920 O   0  0  0  0  0  0  0  0  0  0  0  0
   -2.1446   -1.3060    2.5581 H   0  0  0  0  0  0  0  0  0  0  0  0
   -1.5038   -4.9567   -6.4680 C   0  0  0  0  0  0  0  0  0  0  0  0
   -0.6946   -6.1008   -6.9400 N   0  0  0  0  0  0  0  0  0  0  0  0
    0.2834   -6.0360   -6.5737 H   0  0  0  0  0  0  0  0  0  0  0  0
   -1.2380   -7.4453   -6.6495 C   0  0  0  0  0  0  0  0  0  0  0  0
   -0.4986   -8.1635   -5.5681 C   0  0  0  0  0  0  0  0  0  0  0  0
   -1.2741   -8.4536   -4.5360 C   0  0  0  0  0  0  0  0  0  0  0  0
   -2.6674   -7.9563   -4.7044 C   0  0  0  0  0  0  0  0  0  0  0  0
   -3.5735   -9.0095   -4.5105 O   0  0  0  0  0  0  0  0  0  0  0  0
   -2.7029   -7.3966   -6.1478 C   0  0  0  0  0  0  0  0  0  0  0  0
   -3.5537   -8.1431   -6.9877 O   0  0  0  0  0  0  0  0  0  0  0  0
   -4.4715   -8.5928   -4.4290 H   0  0  0  0  0  0  0  0  0  0  0  0
   -3.1991   -9.0700   -7.0375 H   0  0  0  0  0  0  0  0  0  0  0  0
  1  2  1  0  0  0
  1 12  1  0  0  0
  1 13  1  0  0  0
  2  3  2  0  0  0
  2 11  1  0  0  0
  3  4  1  0  0  0
  4  5  2  0  0  0
  4  8  1  0  0  0
  5  6  1  0  0  0
  5  9  1  0  0  0
  6 27  1  0  0  0
  6  7  2  0  0  0
 27 28  1  0  0  0
 28 30  1  0  0  0
 28 29  1  0  0  0
 30 31  1  0  0  0
 30 35  1  0  0  0
 31 32  2  0  0  0
 32 33  1  0  0  0
 33 34  1  0  0  0
 33 35  1  0  0  0
 34 37  1  0  0  0
 35 36  1  0  0  0
 36 38  1  0  0  0
  7  8  1  0  0  0
  8 15  1  0  0  0
 15 16  1  0  0  0
 15 20  1  0  0  0
 16 17  1  0  0  0
 17 24  1  0  0  0
 17 18  1  0  0  0
 24 25  1  0  0  0
 25 26  1  0  0  0
 18 19  1  0  0  0
 18 20  1  0  0  0
 19 22  1  0  0  0
 20 21  1  0  0  0
 21 23  1  0  0  0
  9 10  2  0  0  0
  9 11  1  0  0  0
 11 14  1  0  0  0
M  END
> <minimizedAffinity>
0.95876

> <CNNscore>
0.4146362543

> <CNNaffinity>
6.7748999596

> <CNN_VS>
2.8091192245

> <CNNaffinity_variance>
1.2342627048

$$$$
