


 38 41  0  0  0  0  0  0  0  0999 V2000
   -3.5207   -4.0781    1.9038 N   0  0  0  0  0  0  0  0  0  0  0  0
   -3.0701   -3.9980    0.5521 C   0  0  0  0  0  0  0  0  0  0  0  0
   -3.5642   -3.0226   -0.2658 N   0  0  0  0  0  0  0  0  0  0  0  0
   -3.1218   -2.9555   -1.5447 C   0  0  0  0  0  0  0  0  0  0  0  0
   -2.2034   -3.8348   -2.0411 C   0  0  0  0  0  0  0  0  0  0  0  0
   -2.0007   -3.4903   -3.3716 C   0  0  0  0  0  0  0  0  0  0  0  0
   -2.8511   -2.4094   -3.6102 C   0  0  0  0  0  0  0  0  0  0  0  0
   -3.5187   -2.0729   -2.4811 N   0  0  0  0  0  0  0  0  0  0  0  0
   -1.7063   -4.8437   -1.2156 C   0  0  0  0  0  0  0  0  0  0  0  0
   -0.8770   -5.6920   -1.6371 O   0  0  0  0  0  0  0  0  0  0  0  0
   -2.1498   -4.8988    0.0763 N   0  0  0  0  0  0  0  0  0  0  0  0
   -3.1641   -4.8240    2.5428 H   0  0  0  0  0  0  0  0  0  0  0  0
   -4.2118   -3.3875    2.2712 H   0  0  0  0  0  0  0  0  0  0  0  0
   -1.7845   -5.6454    0.7103 H   0  0  0  0  0  0  0  0  0  0  0  0
   -4.5584   -1.0447   -2.3793 C   0  0  0  0  0  0  0  0  0  0  0  0
   -5.3426   -1.2415   -1.2249 O   0  0  0  0  0  0  0  0  0  0  0  0
   -6.6510   -0.7977   -1.5277 C   0  0  0  0  0  0  0  0  0  0  0  0
   -6.7562   -0.4913   -3.0296 C   0  0  0  0  0  0  0  0  0  0  0  0
   -6.7909    0.9020   -3.2230 O   0  0  0  0  0  0  0  0  0  0  0  0
   -5.4790   -1.0849   -3.5826 C   0  0  0  0  0  0  0  0  0  0  0  0
   -4.9486   -0.3363   -4.6464 O   0  0  0  0  0  0  0  0  0  0  0  0
   -7.1808    1.0581   -4.1221 H   0  0  0  0  0  0  0  0  0  0  0  0
   -5.5087   -0.5412   -5.4403 H   0  0  0  0  0  0  0  0  0  0  0  0
   -7.6677   -1.8544   -1.0775 C   0  0  0  0  0  0  0  0  0  0  0  0
   -7.1312   -2.6488   -0.0560 O   0  0  0  0  0  0  0  0  0  0  0  0
   -7.8165   -3.3391    0.1448 H   0  0  0  0  0  0  0  0  0  0  0  0
   -1.1202   -4.1646   -4.3954 C   0  0  0  0  0  0  0  0  0  0  0  0
   -1.8967   -4.7804   -5.4927 N   0  0  0  0  0  0  0  0  0  0  0  0
   -2.2559   -4.0465   -6.1463 H   0  0  0  0  0  0  0  0  0  0  0  0
   -1.2039   -5.8310   -6.2695 C   0  0  0  0  0  0  0  0  0  0  0  0
    0.2710   -5.8679   -6.0347 C   0  0  0  0  0  0  0  0  0  0  0  0
    0.6724   -7.0273   -5.5391 C   0  0  0  0  0  0  0  0  0  0  0  0
   -0.4520   -7.9760   -5.3095 C   0  0  0  0  0  0  0  0  0  0  0  0
   -0.1803   -9.1962   -5.9461 O   0  0  0  0  0  0  0  0  0  0  0  0
   -1.6882   -7.2560   -5.9022 C   0  0  0  0  0  0  0  0  0  0  0  0
   -2.2041   -7.9250   -7.0305 O   0  0  0  0  0  0  0  0  0  0  0  0
   -0.8455   -9.8463   -5.5973 H   0  0  0  0  0  0  0  0  0  0  0  0
   -1.4999   -7.9312   -7.7317 H   0  0  0  0  0  0  0  0  0  0  0  0
  1  2  1  0  0  0
  1 12  1  0  0  0
  1 13  1  0  0  0
  2  3  2  0  0  0
  2 11  1  0  0  0
  3  4  1  0  0  0
  4  5  2  0  0  0
  4  8  1  0  0  0
  5  6  1  0  0  0
  5  9  1  0  0  0
  6 27  1  0  0  0
  6  7  2  0  0  0
 27 28  1  0  0  0
 28 30  1  0  0  0
 28 29  1  0  0  0
 30 31  1  0  0  0
 30 35  1  0  0  0
 31 32  2  0  0  0
 32 33  1  0  0  0
 33 34  1  0  0  0
 33 35  1  0  0  0
 34 37  1  0  0  0
 35 36  1  0  0  0
 36 38  1  0  0  0
  7  8  1  0  0  0
  8 15  1  0  0  0
 15 16  1  0  0  0
 15 20  1  0  0  0
 16 17  1  0  0  0
 17 24  1  0  0  0
 17 18  1  0  0  0
 24 25  1  0  0  0
 25 26  1  0  0  0
 18 19  1  0  0  0
 18 20  1  0  0  0
 19 22  1  0  0  0
 20 21  1  0  0  0
 21 23  1  0  0  0
  9 10  2  0  0  0
  9 11  1  0  0  0
 11 14  1  0  0  0
M  END
> <minimizedAffinity>
8.10778

> <CNNscore>
0.5319784880

> <CNNaffinity>
7.6205153465

> <CNN_VS>
4.0539503098

> <CNNaffinity_variance>
2.2243142128

$$$$
